data_112954
_audit_creation_date              2019-12-28
_audit_creation_method            'Materials Studio'
_symmetry_space_group_name_H-M    'FM-3M'
_symmetry_Int_Tables_number       225
_symmetry_cell_setting            cubic
loop_
_symmetry_equiv_pos_as_xyz
  x,y,z
  -x,-y,z
  -x,y,-z
  x,-y,-z
  z,x,y
  z,-x,-y
  -z,-x,y
  -z,x,-y
  y,z,x
  -y,z,-x
  y,-z,-x
  -y,-z,x
  y,x,-z
  -y,-x,-z
  y,-x,z
  -y,x,z
  x,z,-y
  -x,z,y
  -x,-z,-y
  x,-z,y
  z,y,-x
  z,-y,x
  -z,y,x
  -z,-y,-x
  -x,-y,-z
  x,y,-z
  x,-y,z
  -x,y,z
  -z,-x,-y
  -z,x,y
  z,x,-y
  z,-x,y
  -y,-z,-x
  y,-z,x
  -y,z,x
  y,z,-x
  -y,-x,z
  y,x,z
  -y,x,-z
  y,-x,-z
  -x,-z,y
  x,-z,-y
  x,z,y
  -x,z,-y
  -z,-y,x
  -z,y,-x
  z,-y,-x
  z,y,x
  x,y+1/2,z+1/2
  -x,-y+1/2,z+1/2
  -x,y+1/2,-z+1/2
  x,-y+1/2,-z+1/2
  z,x+1/2,y+1/2
  z,-x+1/2,-y+1/2
  -z,-x+1/2,y+1/2
  -z,x+1/2,-y+1/2
  y,z+1/2,x+1/2
  -y,z+1/2,-x+1/2
  y,-z+1/2,-x+1/2
  -y,-z+1/2,x+1/2
  y,x+1/2,-z+1/2
  -y,-x+1/2,-z+1/2
  y,-x+1/2,z+1/2
  -y,x+1/2,z+1/2
  x,z+1/2,-y+1/2
  -x,z+1/2,y+1/2
  -x,-z+1/2,-y+1/2
  x,-z+1/2,y+1/2
  z,y+1/2,-x+1/2
  z,-y+1/2,x+1/2
  -z,y+1/2,x+1/2
  -z,-y+1/2,-x+1/2
  -x,-y+1/2,-z+1/2
  x,y+1/2,-z+1/2
  x,-y+1/2,z+1/2
  -x,y+1/2,z+1/2
  -z,-x+1/2,-y+1/2
  -z,x+1/2,y+1/2
  z,x+1/2,-y+1/2
  z,-x+1/2,y+1/2
  -y,-z+1/2,-x+1/2
  y,-z+1/2,x+1/2
  -y,z+1/2,x+1/2
  y,z+1/2,-x+1/2
  -y,-x+1/2,z+1/2
  y,x+1/2,z+1/2
  -y,x+1/2,-z+1/2
  y,-x+1/2,-z+1/2
  -x,-z+1/2,y+1/2
  x,-z+1/2,-y+1/2
  x,z+1/2,y+1/2
  -x,z+1/2,-y+1/2
  -z,-y+1/2,x+1/2
  -z,y+1/2,-x+1/2
  z,-y+1/2,-x+1/2
  z,y+1/2,x+1/2
  x+1/2,y,z+1/2
  -x+1/2,-y,z+1/2
  -x+1/2,y,-z+1/2
  x+1/2,-y,-z+1/2
  z+1/2,x,y+1/2
  z+1/2,-x,-y+1/2
  -z+1/2,-x,y+1/2
  -z+1/2,x,-y+1/2
  y+1/2,z,x+1/2
  -y+1/2,z,-x+1/2
  y+1/2,-z,-x+1/2
  -y+1/2,-z,x+1/2
  y+1/2,x,-z+1/2
  -y+1/2,-x,-z+1/2
  y+1/2,-x,z+1/2
  -y+1/2,x,z+1/2
  x+1/2,z,-y+1/2
  -x+1/2,z,y+1/2
  -x+1/2,-z,-y+1/2
  x+1/2,-z,y+1/2
  z+1/2,y,-x+1/2
  z+1/2,-y,x+1/2
  -z+1/2,y,x+1/2
  -z+1/2,-y,-x+1/2
  -x+1/2,-y,-z+1/2
  x+1/2,y,-z+1/2
  x+1/2,-y,z+1/2
  -x+1/2,y,z+1/2
  -z+1/2,-x,-y+1/2
  -z+1/2,x,y+1/2
  z+1/2,x,-y+1/2
  z+1/2,-x,y+1/2
  -y+1/2,-z,-x+1/2
  y+1/2,-z,x+1/2
  -y+1/2,z,x+1/2
  y+1/2,z,-x+1/2
  -y+1/2,-x,z+1/2
  y+1/2,x,z+1/2
  -y+1/2,x,-z+1/2
  y+1/2,-x,-z+1/2
  -x+1/2,-z,y+1/2
  x+1/2,-z,-y+1/2
  x+1/2,z,y+1/2
  -x+1/2,z,-y+1/2
  -z+1/2,-y,x+1/2
  -z+1/2,y,-x+1/2
  z+1/2,-y,-x+1/2
  z+1/2,y,x+1/2
  x+1/2,y+1/2,z
  -x+1/2,-y+1/2,z
  -x+1/2,y+1/2,-z
  x+1/2,-y+1/2,-z
  z+1/2,x+1/2,y
  z+1/2,-x+1/2,-y
  -z+1/2,-x+1/2,y
  -z+1/2,x+1/2,-y
  y+1/2,z+1/2,x
  -y+1/2,z+1/2,-x
  y+1/2,-z+1/2,-x
  -y+1/2,-z+1/2,x
  y+1/2,x+1/2,-z
  -y+1/2,-x+1/2,-z
  y+1/2,-x+1/2,z
  -y+1/2,x+1/2,z
  x+1/2,z+1/2,-y
  -x+1/2,z+1/2,y
  -x+1/2,-z+1/2,-y
  x+1/2,-z+1/2,y
  z+1/2,y+1/2,-x
  z+1/2,-y+1/2,x
  -z+1/2,y+1/2,x
  -z+1/2,-y+1/2,-x
  -x+1/2,-y+1/2,-z
  x+1/2,y+1/2,-z
  x+1/2,-y+1/2,z
  -x+1/2,y+1/2,z
  -z+1/2,-x+1/2,-y
  -z+1/2,x+1/2,y
  z+1/2,x+1/2,-y
  z+1/2,-x+1/2,y
  -y+1/2,-z+1/2,-x
  y+1/2,-z+1/2,x
  -y+1/2,z+1/2,x
  y+1/2,z+1/2,-x
  -y+1/2,-x+1/2,z
  y+1/2,x+1/2,z
  -y+1/2,x+1/2,-z
  y+1/2,-x+1/2,-z
  -x+1/2,-z+1/2,y
  x+1/2,-z+1/2,-y
  x+1/2,z+1/2,y
  -x+1/2,z+1/2,-y
  -z+1/2,-y+1/2,x
  -z+1/2,y+1/2,-x
  z+1/2,-y+1/2,-x
  z+1/2,y+1/2,x
_cell_length_a                    26.3430
_cell_length_b                    26.3430
_cell_length_c                    26.3430
_cell_angle_alpha                 90.0000
_cell_angle_beta                  90.0000
_cell_angle_gamma                 90.0000
loop_
_atom_site_label
_atom_site_type_symbol
_atom_site_fract_x
_atom_site_fract_y
_atom_site_fract_z
_atom_site_U_iso_or_equiv
_atom_site_adp_type
_atom_site_occupancy
O11    O     0.31664   0.24313  -0.05224   0.05133  Uani   1.00
Cu1    Cu    0.28527   0.28527  -0.00000   0.03130  Uani   1.00
C1     C     0.32200   0.17800  -0.11300   0.04033  Uani   1.00
C10    C     0.29680   0.20320  -0.06870   0.03933  Uani   1.00
C2     C     0.36550   0.19940  -0.13450   0.04200  Uani   1.00
H2A    H     0.38020   0.22800  -0.11980   0.05000  Uiso   1.00
loop_
_atom_site_aniso_label
_atom_site_aniso_U_11
_atom_site_aniso_U_22
_atom_site_aniso_U_33
_atom_site_aniso_U_12
_atom_site_aniso_U_13
_atom_site_aniso_U_23
O11       0.05200   0.05100   0.05100  -0.01600   0.01400  -0.01600
Cu1       0.03300   0.03300   0.02790  -0.00910   0.00000  -0.00000
C1        0.03900   0.03900   0.04300  -0.00100   0.00400  -0.00400
C10       0.04200   0.04200   0.03400  -0.00600   0.00000  -0.00000
C2        0.04100   0.04400   0.04100  -0.00400   0.00200  -0.00400
loop_
_geom_bond_atom_site_label_1
_geom_bond_atom_site_label_2
_geom_bond_distance
_geom_bond_site_symmetry_2
_ccdc_geom_bond_type
O11    Cu1     1.952   .     S
O11    C10     1.252   .     S
Cu1    O11     1.952   13    S
Cu1    O11     1.952   26    S
Cu1    O11     1.952   38    S
Cu1    Cu1     2.628   146   S
C1     C2      1.397   .     S
C1     C2      1.397   108_554 S
C1     C10     1.498   .     S
C10    O11     1.252   181   S
C2     C1      1.397   144_554 S
